# generated using pymatgen
data_Li(CoO2)2
_symmetry_space_group_name_H-M   'P 1'
_cell_length_a   5.67202501
_cell_length_b   5.67202501
_cell_length_c   9.98542000
_cell_angle_alpha   73.50000000
_cell_angle_beta   73.50000000
_cell_angle_gamma   60.00000000
_symmetry_Int_Tables_number   1
_chemical_formula_structural   Li(CoO2)2
_chemical_formula_sum   'Li4 Co8 O16'
_cell_volume   262.82366679
_cell_formula_units_Z   4
loop_
 _symmetry_equiv_pos_site_id
 _symmetry_equiv_pos_as_xyz
  1  'x, y, z'
loop_
 _atom_site_type_symbol
 _atom_site_label
 _atom_site_symmetry_multiplicity
 _atom_site_fract_x
 _atom_site_fract_y
 _atom_site_fract_z
 _atom_site_occupancy
  Co  Co0  1  0.00000000  0.00000000  0.00000000  1.0
  Co  Co1  1  0.00000000  0.00000000  0.50000000  1.0
  Co  Co2  1  0.00000000  0.50000000  0.00000000  1.0
  Co  Co3  1  0.00000000  0.50000000  0.50000000  1.0
  Co  Co4  1  0.50000000  0.00000000  0.00000000  1.0
  Co  Co5  1  0.50000000  0.00000000  0.50000000  1.0
  Co  Co6  1  0.50000000  0.50000000  0.00000000  1.0
  Co  Co7  1  0.50000000  0.50000000  0.50000000  1.0
  Li  Li8  1  0.25000000  0.75000000  0.75000000  1
  Li  Li9  1  0.75000000  0.25000000  0.25000000  1
  Li  Li10  1  0.75000000  0.25000000  0.75000000  1
  Li  Li11  1  0.75000000  0.75000000  0.75000000  1
  O  O12  1  0.36979350  0.36979350  0.39061950  1.0
  O  O13  1  0.36979350  0.36979350  0.89061950  1.0
  O  O14  1  0.36979350  0.86979350  0.39061950  1.0
  O  O15  1  0.36979350  0.86979350  0.89061950  1.0
  O  O16  1  0.86979350  0.36979350  0.39061950  1.0
  O  O17  1  0.86979350  0.36979350  0.89061950  1.0
  O  O18  1  0.86979350  0.86979350  0.39061950  1.0
  O  O19  1  0.86979350  0.86979350  0.89061950  1.0
  O  O20  1  0.13020650  0.13020650  0.10938050  1.0
  O  O21  1  0.13020650  0.13020650  0.60938050  1.0
  O  O22  1  0.13020650  0.63020650  0.10938050  1.0
  O  O23  1  0.13020650  0.63020650  0.60938050  1.0
  O  O24  1  0.63020650  0.13020650  0.10938050  1.0
  O  O25  1  0.63020650  0.13020650  0.60938050  1.0
  O  O26  1  0.63020650  0.63020650  0.10938050  1.0
  O  O27  1  0.63020650  0.63020650  0.60938050  1.0
