# generated using pymatgen
data_Li3Co5O8
_symmetry_space_group_name_H-M   'P 1'
_cell_length_a   6.06572328
_cell_length_b   6.06572328
_cell_length_c   6.06572328
_cell_angle_alpha   60.00000000
_cell_angle_beta   60.00000000
_cell_angle_gamma   60.00000000
_symmetry_Int_Tables_number   1
_chemical_formula_structural   Li3Co5O8
_chemical_formula_sum   'Li3 Co5 O8'
_cell_volume   157.80936908
_cell_formula_units_Z   1
loop_
 _symmetry_equiv_pos_site_id
 _symmetry_equiv_pos_as_xyz
  1  'x, y, z'
loop_
 _atom_site_type_symbol
 _atom_site_label
 _atom_site_symmetry_multiplicity
 _atom_site_fract_x
 _atom_site_fract_y
 _atom_site_fract_z
 _atom_site_occupancy
  Co  Co0  1  0.00000000  0.00000000  0.00000000  1.0
  Co  Co1  1  0.00000000  0.00000000  0.50000000  1.0
  Co  Co2  1  1.00000000  0.50000000  0.00000000  1.0
  Co  Co3  1  1.00000000  0.50000000  0.50000000  1.0
  Li  Li4  1  0.50000000  0.00000000  0.00000000  1
  Li  Li5  1  0.50000000  0.00000000  0.50000000  1
  Co  Co6  1  0.50000000  0.50000000  0.00000000  1.0
  Li  Li7  1  0.50000000  0.50000000  0.50000000  1
  O  O8  1  0.25000000  0.25000000  0.25000000  1.0
  O  O9  1  0.25000000  0.25000000  0.75000000  1.0
  O  O10  1  0.25000000  0.75000000  0.25000000  1.0
  O  O11  1  0.25000000  0.75000000  0.75000000  1.0
  O  O12  1  0.75000000  0.25000000  0.25000000  1.0
  O  O13  1  0.75000000  0.25000000  0.75000000  1.0
  O  O14  1  0.75000000  0.75000000  0.25000000  1.0
  O  O15  1  0.75000000  0.75000000  0.75000000  1.0
