# generated using pymatgen
data_Li3Co21O32
_symmetry_space_group_name_H-M   'P 1'
_cell_length_a   8.40036303
_cell_length_b   8.40036303
_cell_length_c   8.40036303
_cell_angle_alpha   90.00000000
_cell_angle_beta   90.00000000
_cell_angle_gamma   90.00000000
_symmetry_Int_Tables_number   1
_chemical_formula_structural   Li3Co21O32
_chemical_formula_sum   'Li3 Co21 O32'
_cell_volume   592.78084951
_cell_formula_units_Z   1
loop_
 _symmetry_equiv_pos_site_id
 _symmetry_equiv_pos_as_xyz
  1  'x, y, z'
loop_
 _atom_site_type_symbol
 _atom_site_label
 _atom_site_symmetry_multiplicity
 _atom_site_fract_x
 _atom_site_fract_y
 _atom_site_fract_z
 _atom_site_occupancy
  Co  Co0  1  0.12500000  0.12500000  0.62500000  1.0
  Co  Co1  1  0.12500000  0.87500000  0.37500000  1.0
  Co  Co2  1  0.87500000  0.87500000  0.62500000  1.0
  Co  Co3  1  0.37500000  0.62500000  0.37500000  1.0
  Co  Co4  1  0.12500000  0.62500000  0.12500000  1.0
  Co  Co5  1  0.87500000  0.12500000  0.37500000  1.0
  Co  Co6  1  0.37500000  0.87500000  0.12500000  1.0
  Co  Co7  1  0.62500000  0.12500000  0.12500000  1.0
  Co  Co8  1  0.87500000  0.62500000  0.87500000  1.0
  Co  Co9  1  0.62500000  0.87500000  0.87500000  1.0
  Co  Co10  1  0.37500000  0.12500000  0.87500000  1.0
  Co  Co11  1  0.62500000  0.62500000  0.62500000  1.0
  Li  Li12  1  0.37500000  0.37500000  0.62500000  1
  Co  Co13  1  0.12500000  0.37500000  0.87500000  1.0
  Co  Co14  1  0.87500000  0.37500000  0.12500000  1.0
  Co  Co15  1  0.62500000  0.37500000  0.37500000  1.0
  Co  Co16  1  0.00000000  0.00000000  0.00000000  1.0
  Li  Li17  1  0.25000000  0.75000000  0.75000000  1
  Co  Co18  1  0.50000000  0.50000000  0.00000000  1.0
  Co  Co19  1  0.75000000  0.25000000  0.75000000  1.0
  Co  Co20  1  0.50000000  0.00000000  0.50000000  1.0
  Co  Co21  1  0.75000000  0.75000000  0.25000000  1.0
  Li  Li22  1  0.00000000  0.50000000  0.50000000  1
  Co  Co23  1  0.25000000  0.25000000  0.25000000  1.0
  O  O24  1  0.11566450  0.11566450  0.38433550  1.0
  O  O25  1  0.13433550  0.86566450  0.13433550  1.0
  O  O26  1  0.88433550  0.88433550  0.38433550  1.0
  O  O27  1  0.36566450  0.63433550  0.13433550  1.0
  O  O28  1  0.11566450  0.88433550  0.61566450  1.0
  O  O29  1  0.13433550  0.63433550  0.36566450  1.0
  O  O30  1  0.88433550  0.11566450  0.61566450  1.0
  O  O31  1  0.36566450  0.86566450  0.36566450  1.0
  O  O32  1  0.38433550  0.11566450  0.11566450  1.0
  O  O33  1  0.63433550  0.63433550  0.86566450  1.0
  O  O34  1  0.38433550  0.88433550  0.88433550  1.0
  O  O35  1  0.63433550  0.86566450  0.63433550  1.0
  O  O36  1  0.61566450  0.11566450  0.88433550  1.0
  O  O37  1  0.86566450  0.63433550  0.63433550  1.0
  O  O38  1  0.61566450  0.88433550  0.11566450  1.0
  O  O39  1  0.86566450  0.86566450  0.86566450  1.0
  O  O40  1  0.11566450  0.38433550  0.11566450  1.0
  O  O41  1  0.36566450  0.13433550  0.63433550  1.0
  O  O42  1  0.88433550  0.38433550  0.88433550  1.0
  O  O43  1  0.13433550  0.13433550  0.86566450  1.0
  O  O44  1  0.88433550  0.61566450  0.11566450  1.0
  O  O45  1  0.13433550  0.36566450  0.63433550  1.0
  O  O46  1  0.11566450  0.61566450  0.88433550  1.0
  O  O47  1  0.36566450  0.36566450  0.86566450  1.0
  O  O48  1  0.61566450  0.61566450  0.38433550  1.0
  O  O49  1  0.63433550  0.36566450  0.13433550  1.0
  O  O50  1  0.38433550  0.38433550  0.38433550  1.0
  O  O51  1  0.86566450  0.13433550  0.13433550  1.0
  O  O52  1  0.61566450  0.38433550  0.61566450  1.0
  O  O53  1  0.63433550  0.13433550  0.36566450  1.0
  O  O54  1  0.38433550  0.61566450  0.61566450  1.0
  O  O55  1  0.86566450  0.36566450  0.36566450  1.0
