# generated using pymatgen
data_LiCo2O3
_symmetry_space_group_name_H-M   'P 1'
_cell_length_a   9.09858492
_cell_length_b   9.09858492
_cell_length_c   9.09858492
_cell_angle_alpha   60.00000000
_cell_angle_beta   60.00000000
_cell_angle_gamma   60.00000000
_symmetry_Int_Tables_number   1
_chemical_formula_structural   LiCo2O3
_chemical_formula_sum   'Li9 Co18 O27'
_cell_volume   532.60662065
_cell_formula_units_Z   9
loop_
 _symmetry_equiv_pos_site_id
 _symmetry_equiv_pos_as_xyz
  1  'x, y, z'
loop_
 _atom_site_type_symbol
 _atom_site_label
 _atom_site_symmetry_multiplicity
 _atom_site_fract_x
 _atom_site_fract_y
 _atom_site_fract_z
 _atom_site_occupancy
  Co  Co0  1  0.00000000  0.00000000  0.00000000  1.0
  Li  Li1  1  0.00000000  0.00000000  0.33333333  1
  Li  Li2  1  0.00000000  0.00000000  0.66666667  1
  Co  Co3  1  0.00000000  0.33333333  0.00000000  1.0
  Co  Co4  1  0.00000000  0.33333333  0.33333333  1.0
  Co  Co5  1  0.00000000  0.33333333  0.66666667  1.0
  Co  Co6  1  0.00000000  0.66666667  0.00000000  1.0
  Co  Co7  1  0.00000000  0.66666667  0.33333333  1.0
  Co  Co8  1  0.00000000  0.66666667  0.66666667  1.0
  Co  Co9  1  0.33333333  0.00000000  1.00000000  1.0
  Co  Co10  1  0.33333333  0.00000000  0.33333333  1.0
  Co  Co11  1  0.33333333  0.00000000  0.66666667  1.0
  Li  Li12  1  0.33333333  0.33333333  0.00000000  1
  Li  Li13  1  0.33333333  0.33333333  0.33333333  1
  Co  Co14  1  0.33333333  0.33333333  0.66666667  1.0
  Li  Li15  1  0.33333333  0.66666667  0.00000000  1
  Li  Li16  1  0.33333333  0.66666667  0.33333333  1
  Li  Li17  1  0.33333333  0.66666667  0.66666667  1
  Li  Li18  1  0.66666667  0.00000000  1.00000000  1
  Co  Co19  1  0.66666667  0.00000000  0.33333333  1.0
  Co  Co20  1  0.66666667  0.00000000  0.66666667  1.0
  Co  Co21  1  0.66666667  0.33333333  1.00000000  1.0
  Co  Co22  1  0.66666667  0.33333333  0.33333333  1.0
  Co  Co23  1  0.66666667  0.33333333  0.66666667  1.0
  Co  Co24  1  0.66666667  0.66666667  0.00000000  1.0
  Li  Li25  1  0.66666667  0.66666667  0.33333333  1
  Co  Co26  1  0.66666667  0.66666667  0.66666667  1.0
  O  O27  1  0.16666667  0.16666667  0.16666667  1.0
  O  O28  1  0.16666667  0.16666667  0.50000000  1.0
  O  O29  1  0.16666667  0.16666667  0.83333333  1.0
  O  O30  1  0.16666667  0.50000000  0.16666667  1.0
  O  O31  1  0.16666667  0.50000000  0.50000000  1.0
  O  O32  1  0.16666667  0.50000000  0.83333333  1.0
  O  O33  1  0.16666667  0.83333333  0.16666667  1.0
  O  O34  1  0.16666667  0.83333333  0.50000000  1.0
  O  O35  1  0.16666667  0.83333333  0.83333333  1.0
  O  O36  1  0.50000000  0.16666667  0.16666667  1.0
  O  O37  1  0.50000000  0.16666667  0.50000000  1.0
  O  O38  1  0.50000000  0.16666667  0.83333333  1.0
  O  O39  1  0.50000000  0.50000000  0.16666667  1.0
  O  O40  1  0.50000000  0.50000000  0.50000000  1.0
  O  O41  1  0.50000000  0.50000000  0.83333333  1.0
  O  O42  1  0.50000000  0.83333333  0.16666667  1.0
  O  O43  1  0.50000000  0.83333333  0.50000000  1.0
  O  O44  1  0.50000000  0.83333333  0.83333333  1.0
  O  O45  1  0.83333333  0.16666667  0.16666667  1.0
  O  O46  1  0.83333333  0.16666667  0.50000000  1.0
  O  O47  1  0.83333333  0.16666667  0.83333333  1.0
  O  O48  1  0.83333333  0.50000000  0.16666667  1.0
  O  O49  1  0.83333333  0.50000000  0.50000000  1.0
  O  O50  1  0.83333333  0.50000000  0.83333333  1.0
  O  O51  1  0.83333333  0.83333333  0.16666667  1.0
  O  O52  1  0.83333333  0.83333333  0.50000000  1.0
  O  O53  1  0.83333333  0.83333333  0.83333333  1.0
