# generated using pymatgen
data_MnCoO2
_symmetry_space_group_name_H-M   'P 1'
_cell_length_a   8.57824000
_cell_length_b   8.57824000
_cell_length_c   8.57824000
_cell_angle_alpha   90.00000000
_cell_angle_beta   90.00000000
_cell_angle_gamma   90.00000000
_symmetry_Int_Tables_number   1
_chemical_formula_structural   MnCoO2
_chemical_formula_sum   'Mn16 Co16 O32'
_cell_volume   631.24009713
_cell_formula_units_Z   16
loop_
 _symmetry_equiv_pos_site_id
 _symmetry_equiv_pos_as_xyz
  1  'x, y, z'
loop_
 _atom_site_type_symbol
 _atom_site_label
 _atom_site_symmetry_multiplicity
 _atom_site_fract_x
 _atom_site_fract_y
 _atom_site_fract_z
 _atom_site_occupancy
  Co  Co0  1  0.50000000  0.75000000  0.25000000  1
  Co  Co1  1  0.50000000  0.75000000  0.75000000  1
  Co  Co2  1  0.75000000  0.50000000  0.75000000  1
  Co  Co3  1  0.75000000  0.75000000  1.00000000  1
  Co  Co4  1  0.25000000  0.50000000  0.25000000  1
  Co  Co5  1  0.50000000  1.00000000  0.50000000  1
  Co  Co6  1  0.50000000  0.25000000  0.75000000  1
  Co  Co7  1  1.00000000  0.50000000  0.50000000  1
  Co  Co8  1  1.00000000  0.75000000  0.75000000  1
  Co  Co9  1  1.00000000  1.00000000  1.00000000  1
  Co  Co10  1  0.25000000  0.50000000  0.75000000  1
  Co  Co11  1  0.25000000  0.75000000  1.00000000  1
  Co  Co12  1  1.00000000  1.00000000  0.50000000  1
  Co  Co13  1  0.25000000  0.75000000  0.50000000  1
  Co  Co14  1  0.25000000  1.00000000  0.75000000  1
  Co  Co15  1  0.25000000  0.25000000  1.00000000  1
  Mn  Mn16  1  0.50000000  0.50000000  1.00000000  1
  Mn  Mn17  1  0.75000000  0.50000000  0.25000000  1
  Mn  Mn18  1  0.50000000  0.50000000  0.50000000  1
  Mn  Mn19  1  0.50000000  1.00000000  1.00000000  1
  Mn  Mn20  1  0.50000000  0.25000000  0.25000000  1
  Mn  Mn21  1  0.75000000  1.00000000  0.25000000  1
  Mn  Mn22  1  1.00000000  0.50000000  1.00000000  1
  Mn  Mn23  1  1.00000000  0.75000000  0.25000000  1
  Mn  Mn24  1  0.75000000  0.75000000  0.50000000  1
  Mn  Mn25  1  0.75000000  1.00000000  0.75000000  1
  Mn  Mn26  1  0.75000000  0.25000000  1.00000000  1
  Mn  Mn27  1  1.00000000  0.25000000  0.25000000  1
  Mn  Mn28  1  0.25000000  1.00000000  0.25000000  1
  Mn  Mn29  1  0.75000000  0.25000000  0.50000000  1
  Mn  Mn30  1  1.00000000  0.25000000  0.75000000  1
  Mn  Mn31  1  0.25000000  0.25000000  0.50000000  1
  O  O32  1  0.25000000  0.25000000  0.75000000  1
  O  O33  1  0.25000000  0.50000000  1.00000000  1
  O  O34  1  0.50000000  0.25000000  1.00000000  1
  O  O35  1  0.25000000  0.25000000  0.25000000  1
  O  O36  1  0.25000000  0.50000000  0.50000000  1
  O  O37  1  0.25000000  0.75000000  0.75000000  1
  O  O38  1  0.25000000  1.00000000  1.00000000  1
  O  O39  1  0.50000000  0.25000000  0.50000000  1
  O  O40  1  0.50000000  0.50000000  0.75000000  1
  O  O41  1  0.50000000  0.75000000  1.00000000  1
  O  O42  1  0.75000000  0.25000000  0.75000000  1
  O  O43  1  0.75000000  0.50000000  1.00000000  1
  O  O44  1  1.00000000  0.25000000  1.00000000  1
  O  O45  1  0.25000000  0.75000000  0.25000000  1
  O  O46  1  0.25000000  1.00000000  0.50000000  1
  O  O47  1  0.50000000  0.50000000  0.25000000  1
  O  O48  1  0.50000000  0.75000000  0.50000000  1
  O  O49  1  0.50000000  1.00000000  0.75000000  1
  O  O50  1  0.75000000  0.25000000  0.25000000  1
  O  O51  1  0.75000000  0.50000000  0.50000000  1
  O  O52  1  0.75000000  0.75000000  0.75000000  1
  O  O53  1  0.75000000  1.00000000  1.00000000  1
  O  O54  1  1.00000000  0.25000000  0.50000000  1
  O  O55  1  1.00000000  0.50000000  0.75000000  1
  O  O56  1  1.00000000  0.75000000  1.00000000  1
  O  O57  1  0.50000000  1.00000000  0.25000000  1
  O  O58  1  0.75000000  0.75000000  0.25000000  1
  O  O59  1  0.75000000  1.00000000  0.50000000  1
  O  O60  1  1.00000000  0.50000000  0.25000000  1
  O  O61  1  1.00000000  0.75000000  0.50000000  1
  O  O62  1  1.00000000  1.00000000  0.75000000  1
  O  O63  1  1.00000000  1.00000000  0.25000000  1
