# generated using pymatgen
data_LiMnCoO3
_symmetry_space_group_name_H-M   'P 1'
_cell_length_a   6.06572328
_cell_length_b   6.06572328
_cell_length_c   9.09858492
_cell_angle_alpha   60.00000000
_cell_angle_beta   60.00000000
_cell_angle_gamma   60.00000000
_symmetry_Int_Tables_number   1
_chemical_formula_structural   LiMnCoO3
_chemical_formula_sum   'Li4 Mn4 Co4 O12'
_cell_volume   236.71405362
_cell_formula_units_Z   4
loop_
 _symmetry_equiv_pos_site_id
 _symmetry_equiv_pos_as_xyz
  1  'x, y, z'
loop_
 _atom_site_type_symbol
 _atom_site_label
 _atom_site_symmetry_multiplicity
 _atom_site_fract_x
 _atom_site_fract_y
 _atom_site_fract_z
 _atom_site_occupancy
  Co  Co0  1  0.00000000  0.50000000  0.33333333  1
  Co  Co1  1  0.00000000  0.50000000  0.66666667  1
  Co  Co2  1  0.50000000  0.00000000  0.66666667  1
  Co  Co3  1  0.50000000  0.50000000  1.00000000  1
  Li  Li4  1  0.00000000  0.00000000  0.00000000  1
  Li  Li5  1  0.50000000  0.00000000  1.00000000  1
  Li  Li6  1  0.50000000  0.00000000  0.33333333  1
  Li  Li7  1  0.50000000  0.50000000  0.33333333  1
  Mn  Mn8  1  0.00000000  1.00000000  0.33333333  1
  Mn  Mn9  1  0.00000000  1.00000000  0.66666667  1
  Mn  Mn10  1  0.00000000  0.50000000  1.00000000  1
  Mn  Mn11  1  0.50000000  0.50000000  0.66666667  1
  O  O12  1  0.25000000  0.25000000  0.16666667  1.0
  O  O13  1  0.25000000  0.25000000  0.50000000  1.0
  O  O14  1  0.25000000  0.25000000  0.83333333  1.0
  O  O15  1  0.25000000  0.75000000  0.16666667  1.0
  O  O16  1  0.25000000  0.75000000  0.50000000  1.0
  O  O17  1  0.25000000  0.75000000  0.83333333  1.0
  O  O18  1  0.75000000  0.25000000  0.16666667  1.0
  O  O19  1  0.75000000  0.25000000  0.50000000  1.0
  O  O20  1  0.75000000  0.25000000  0.83333333  1.0
  O  O21  1  0.75000000  0.75000000  0.16666667  1.0
  O  O22  1  0.75000000  0.75000000  0.50000000  1.0
  O  O23  1  0.75000000  0.75000000  0.83333333  1.0
